# generated using pymatgen
data_XLa2(MgH3)4
_symmetry_space_group_name_H-M   'P 1'
_cell_length_a   12.68834291
_cell_length_b   12.71472651
_cell_length_c   9.47785153
_cell_angle_alpha   90.04482379
_cell_angle_beta   89.77190966
_cell_angle_gamma   89.64887223
_symmetry_Int_Tables_number   1
_chemical_formula_structural   XLa2(MgH3)4
_chemical_formula_sum   'X8 La16 Mg32 H96'
_cell_volume   1529.00918182
_cell_formula_units_Z   8
loop_
 _symmetry_equiv_pos_site_id
 _symmetry_equiv_pos_as_xyz
  1  'x, y, z'
loop_
 _atom_site_type_symbol
 _atom_site_label
 _atom_site_symmetry_multiplicity
 _atom_site_fract_x
 _atom_site_fract_y
 _atom_site_fract_z
 _atom_site_occupancy
  La  La0  1  0.12597400  0.13180800  0.98877900  1
  La  La1  1  0.13559100  0.63848400  0.98944300  1
  La  La2  1  0.63755000  0.13309200  0.98967800  1
  La  La3  1  0.62773200  0.62795400  0.99370300  1
  La  La4  1  0.38136800  0.37212500  0.49187800  1
  La  La5  1  0.36257700  0.85996000  0.47357900  1
  La  La6  1  0.86905700  0.36246500  0.49823300  1
  La  La7  1  0.86785400  0.86387900  0.48880100  1
  La  La8  1  0.11546300  0.37363600  0.22407000  1
  La  La9  1  0.11518700  0.87287100  0.23756700  1
  La  La10  1  0.62076600  0.37817700  0.23622000  1
  La  La11  1  0.61157000  0.88209200  0.24331800  1
  La  La12  1  0.38209300  0.12236100  0.73215200  1
  La  La13  1  0.37871100  0.60990400  0.74615100  1
  La  La14  1  0.87598600  0.11361900  0.74395200  1
  La  La15  1  0.87832900  0.61758800  0.74331300  1
  Mg  Mg16  1  0.01473100  0.12026700  0.33038200  1
  Mg  Mg17  1  0.00941600  0.62282800  0.33984600  1
  Mg  Mg18  1  0.51002400  0.13162100  0.36050700  1
  Mg  Mg19  1  0.51402000  0.61572300  0.34808600  1
  Mg  Mg20  1  0.48629200  0.37047000  0.85989500  1
  Mg  Mg21  1  0.48628000  0.86769300  0.83778200  1
  Mg  Mg22  1  0.98206200  0.36796200  0.86006700  1
  Mg  Mg23  1  0.97840100  0.87081400  0.82935300  1
  Mg  Mg24  1  0.11449700  0.24819800  0.61663400  1
  Mg  Mg25  1  0.11381700  0.75402700  0.58931700  1
  Mg  Mg26  1  0.62304400  0.25259700  0.64020300  1
  Mg  Mg27  1  0.61405600  0.75480000  0.59343700  1
  Mg  Mg28  1  0.38648000  0.24143900  0.10346600  1
  Mg  Mg29  1  0.37662800  0.73569500  0.11316800  1
  Mg  Mg30  1  0.87916700  0.24742500  0.10825400  1
  Mg  Mg31  1  0.88077200  0.73817700  0.09432800  1
  Mg  Mg32  1  0.23826700  0.36836500  0.88580300  1
  Mg  Mg33  1  0.22513100  0.87784800  0.89936100  1
  Mg  Mg34  1  0.73083500  0.37767700  0.89700000  1
  Mg  Mg35  1  0.73381100  0.87150300  0.89363000  1
  Mg  Mg36  1  0.26146500  0.13443100  0.38830400  1
  Mg  Mg37  1  0.26222200  0.61558000  0.39594700  1
  Mg  Mg38  1  0.77177700  0.12503200  0.40314800  1
  Mg  Mg39  1  0.76393300  0.61924500  0.39012000  1
  Mg  Mg40  1  0.12657400  0.00016100  0.61202100  1
  Mg  Mg41  1  0.12129800  0.51544500  0.65855500  1
  Mg  Mg42  1  0.63391900  0.99714600  0.64768900  1
  Mg  Mg43  1  0.63116300  0.51226800  0.63416300  1
  Mg  Mg44  1  0.36496600  0.48240900  0.12904300  1
  Mg  Mg45  1  0.36509900  0.99733900  0.12925500  1
  Mg  Mg46  1  0.87257200  0.49043500  0.13948300  1
  Mg  Mg47  1  0.87723700  0.99015000  0.11105700  1
  H  H48  1  0.26269000  0.71523500  0.56896600  1
  H  H49  1  0.48899400  0.47573100  0.64861400  1
  H  H50  1  0.72858600  0.27782500  0.07397700  1
  H  H51  1  0.03744600  0.53288600  0.14680600  1
  H  H52  1  0.52875000  0.46751000  0.40762700  1
  H  H53  1  0.25081500  0.28603300  0.35771100  1
  H  H54  1  0.44194100  0.95493600  0.65898500  1
  H  H55  1  0.17688000  0.88095900  0.48148600  1
  H  H56  1  0.52764700  0.02614700  0.83758400  1
  H  H57  1  0.47991000  0.51896000  0.90591500  1
  H  H58  1  0.23763700  0.27132000  0.08828000  1
  H  H59  1  0.02126700  0.51507400  0.85965700  1
  H  H60  1  0.73065200  0.76657100  0.10273200  1
  H  H61  1  0.51742400  0.01768300  0.12643400  1
  H  H62  1  0.48347000  0.98231300  0.37761600  1
  H  H63  1  0.24018200  0.22106500  0.83892800  1
  H  H64  1  0.98647400  0.01612200  0.90264200  1
  H  H65  1  0.97518600  0.47034800  0.34566700  1
  H  H66  1  0.25646000  0.73775400  0.83841700  1
  H  H67  1  0.74408100  0.72523800  0.85722500  1
  H  H68  1  0.26399700  0.23932500  0.59786000  1
  H  H69  1  0.75994400  0.26601700  0.33497200  1
  H  H70  1  0.97880600  0.48715400  0.61697600  1
  H  H71  1  0.50499500  0.52551100  0.15904500  1
  H  H72  1  0.76274500  0.21177100  0.58041200  1
  H  H73  1  0.73958500  0.23000900  0.82693300  1
  H  H74  1  0.97689900  0.96953900  0.64661100  1
  H  H75  1  0.74155200  0.76818200  0.35706600  1
  H  H76  1  0.02157500  0.02512300  0.15259100  1
  H  H77  1  0.76255200  0.73010500  0.60282800  1
  H  H78  1  0.01795900  0.97517900  0.39805200  1
  H  H79  1  0.23726700  0.78469900  0.07860000  1
  H  H80  1  0.71882100  0.96725000  0.07039100  1
  H  H81  1  0.22530100  0.01724000  0.80921800  1
  H  H82  1  0.28050800  0.02800900  0.55749700  1
  H  H83  1  0.95972800  0.21756500  0.92151900  1
  H  H84  1  0.21643400  0.53235000  0.81970000  1
  H  H85  1  0.21243200  0.97320900  0.06639600  1
  H  H86  1  0.71654900  0.03125100  0.81172400  1
  H  H87  1  0.66275400  0.89724900  0.49260200  1
  H  H88  1  0.55086300  0.27373400  0.43001100  1
  H  H89  1  0.82717000  0.00602700  0.30518100  1
  H  H90  1  0.21862200  0.46362400  0.05320400  1
  H  H91  1  0.34275400  0.11188000  0.99143800  1
  H  H92  1  0.77774100  0.02704200  0.56510100  1
  H  H93  1  0.45607400  0.71967100  0.92460900  1
  H  H94  1  0.27670800  0.47216800  0.30672700  1
  H  H95  1  0.78042200  0.46212000  0.32021600  1
  H  H96  1  0.78555100  0.52871300  0.56095500  1
  H  H97  1  0.96544500  0.71527400  0.91908600  1
  H  H98  1  0.53802400  0.21480200  0.17679400  1
  H  H99  1  0.03204600  0.77765400  0.41702700  1
  H  H100  1  0.03352300  0.71631900  0.17201900  1
  H  H101  1  0.52609400  0.71443100  0.17479800  1
  H  H102  1  0.26413100  0.51370300  0.56725000  1
  H  H103  1  0.15226700  0.13806000  0.23773600  1
  H  H104  1  0.44757600  0.77402700  0.66825100  1
  H  H105  1  0.71234800  0.53342200  0.80620500  1
  H  H106  1  0.47049100  0.28023800  0.67332100  1
  H  H107  1  0.05473600  0.31501300  0.45275700  1
  H  H108  1  0.71529300  0.47043600  0.06334000  1
  H  H109  1  0.27520800  0.97431400  0.30755300  1
  H  H110  1  0.96659000  0.27862800  0.68149700  1
  H  H111  1  0.96075200  0.77846900  0.66298700  1
  H  H112  1  0.52974500  0.77657800  0.41993700  1
  H  H113  1  0.32252600  0.60932300  0.02632400  1
  H  H114  1  0.39441600  0.17449300  0.48330400  1
  H  H115  1  0.08164300  0.65278400  0.73514500  1
  H  H116  1  0.91412200  0.16057800  0.48173100  1
  H  H117  1  0.07900800  0.12855600  0.73513000  1
  H  H118  1  0.09928900  0.32677300  0.98263200  1
  H  H119  1  0.59175400  0.83893500  0.98741500  1
  H  H120  1  0.65432800  0.58584700  0.24577900  1
  H  H121  1  0.56885600  0.64461200  0.73720300  1
  H  H122  1  0.90064700  0.66612200  0.48075400  1
  H  H123  1  0.37224800  0.13102200  0.24260200  1
  H  H124  1  0.82214900  0.11171500  0.00685600  1
  H  H125  1  0.41648400  0.85996200  0.22304200  1
  H  H126  1  0.34699900  0.41363200  0.75189200  1
  H  H127  1  0.12258200  0.12428800  0.48603500  1
  H  H128  1  0.13094900  0.37272100  0.73011400  1
  H  H129  1  0.87372500  0.87162000  0.98702200  1
  H  H130  1  0.82828200  0.60056300  0.99367700  1
  H  H131  1  0.37150800  0.90391500  0.95342000  1
  H  H132  1  0.42429300  0.35641400  0.24209600  1
  H  H133  1  0.92435200  0.85577200  0.22986300  1
  H  H134  1  0.64605000  0.07418800  0.31632100  1
  H  H135  1  0.08753400  0.83811600  0.97923700  1
  H  H136  1  0.61852300  0.86228800  0.73801200  1
  H  H137  1  0.56062900  0.11564300  0.58308800  1
  H  H138  1  0.68382300  0.38001200  0.57333700  1
  H  H139  1  0.87131900  0.62615900  0.23727400  1
  H  H140  1  0.62483200  0.62106700  0.49272200  1
  H  H141  1  0.12480300  0.86812200  0.72971600  1
  H  H142  1  0.85012600  0.41475700  0.76918200  1
  H  H143  1  0.11364300  0.60796800  0.48531700  1
  X0+  X144  1  0.22222222  0.69444444  0.28571429  1
  X0+  X145  1  0.39814815  0.62037037  0.41666667  1
  X0+  X146  1  0.40740741  0.32407407  0.97619048  1
  X0+  X147  1  0.56481481  0.19444444  0.79761905  1
  X0+  X148  1  0.61111111  0.37037037  0.88095238  1
  X0+  X149  1  0.83333333  0.89814815  0.76190476  1
  X0+  X150  1  0.90740741  0.37962963  0.07142857  1
  X0+  X151  1  0.96296296  0.20370370  0.21428571  1
